data_EJOGUH
_symmetry_space_group_name_H-M    'P1'
_symmetry_Int_Tables_number       1
loop_
_symmetry_equiv_pos_site_id
_symmetry_equiv_pos_as_xyz
1 x,y,z
_cell_length_a                   10.37192
_cell_length_b                   11.50823
_cell_length_c                   12.29173
_cell_angle_alpha                110.47501
_cell_angle_beta                 90.54401
_cell_angle_gamma                93.31101
loop_
_atom_site_label
_atom_site_type_symbol
_atom_site_fract_x
_atom_site_fract_y
_atom_site_fract_z
     1  C          0.30672000       0.04972000       0.55353190
     2  C          0.69328000       0.95028000       0.44646810
     3  C          0.35332000       0.80632000       0.26374180
     4  C          0.64668000       0.19368000       0.73625820
     5  C          0.36700190       0.80092000       0.46850180
     6  C          0.63299810       0.19908000       0.53149820
     7  C          0.29022000       0.05242000       0.35412000
     8  C          0.70978000       0.94758000       0.64588000
     9  C          0.34655190       0.86194190       0.38722170
    10  C          0.65344810       0.13805810       0.61277830
    11  C          0.32932000      -0.01148000       0.62832000
    12  C          0.67068000       0.01148000       0.37168000
    13  C          0.31492000      -0.01118000       0.43181180
    14  C          0.68508000       0.01118000       0.56818820
    15  C          0.29842000      -0.00548000       0.23672000
    16  C          0.70158000       0.00548000       0.76328000
    17  C          0.33112000       0.87062000       0.19141190
    18  C          0.66888000       0.12938000       0.80858810
    19  C          0.35902000       0.86342000       0.58566190
    20  C          0.64098000       0.13658000       0.41433810
    21  N          0.39483170       0.66979160       0.42296150
    22  N          0.60516830       0.33020840       0.57703850
    23  N          0.38353180       0.67539170       0.21512150
    24  N          0.61646820       0.32460830       0.78487850
    25  C          0.52082000       0.64562000       0.46512000
    26  C          0.47918000       0.35438000       0.53488000
    27  C          0.28932000       0.58912000       0.44482000
    28  C          0.71068000       0.41088000       0.55518000
    29  C          0.27223000       0.59623000       0.14393000
    30  C          0.72777000       0.40377000       0.85607000
    31  C          0.50584000       0.65733000       0.15043000
    32  C          0.49416000       0.34267000       0.84957000
    33  H          0.28420000       0.13320000       0.58120000
    34  H          0.71580000       0.86680000       0.41880000
    35  H          0.54130000       0.55730000       0.41620000
    36  H          0.45870000       0.44270000       0.58380000
    37  H          0.20830000       0.60620000       0.41620000
    38  H          0.79170000       0.39380000       0.58380000
    39  H          0.30720000       0.50430000       0.40520000
    40  H          0.69280000       0.49570000       0.59480000
    41  H          0.37320000       0.82020000       0.63220000
    42  H          0.62680000       0.17980000       0.36780000
    43  H          0.33630000       0.83020000       0.11020000
    44  H          0.66370000       0.16980000       0.88980000
    45  H          0.27130000       0.13530000       0.38620000
    46  H          0.72870000       0.86470000       0.61380000
    47  H          0.52630000       0.57130000       0.13430000
    48  H          0.47370000       0.42870000       0.86570000
    49  H          0.58230000       0.70030000       0.44720000
    50  H          0.41770000       0.29970000       0.55280000
    51  H          0.28230000       0.60530000       0.52730000
    52  H          0.71770000       0.39470000       0.47270000
    53  H          0.32330000       0.02630000       0.70230000
    54  H          0.67670000       0.97370000       0.29770000
    55  H          0.27830000       0.03330000       0.18530000
    56  H          0.72170000       0.96670000       0.81470000
    57  H          0.52030000       0.65630000       0.54930000
    58  H          0.47970000       0.34370000       0.45070000
    59  H          0.18740000       0.60830000       0.19130000
    60  H          0.81260000       0.39170000       0.80870000
    61  H          0.29830000       0.51530000       0.12030000
    62  H          0.70170000       0.48470000       0.87970000
    63  H          0.25730000       0.62030000       0.07930000
    64  H          0.74270000       0.37970000       0.92070000
    65  H          0.57140000       0.71030000       0.20230000
    66  H          0.42860000       0.28970000       0.79770000
    67  H          0.49230000       0.67830000       0.08130000
    68  H          0.50770000       0.32170000       0.91870000
    69  H          0.39330000       0.65230000       0.29030000
    70  H          0.60670000       0.34770000       0.70970000
    71  I          0.95093686       0.25141116       0.03970313
    72  I          0.04906314       0.74858884       0.96029687
    73  O          0.43995170       0.41207160       0.23243160
    74  O          0.56004830       0.58792840       0.76756840
    75  O          0.57920170       0.26678170       0.15505180
    76  O          0.42079830       0.73321830       0.84494820
    77  C          0.16202000       0.07172000       0.94213810
    78  C          0.83798000       0.92828000       0.05786190
    79  C          0.38712000       0.11152000       0.00199190
    80  C          0.61288000       0.88848000      -0.00199190
    81  C          0.23462000       0.26102000       0.09824190
    82  C          0.76538000       0.73898000       0.90175810
    83  C          0.36102000       0.22442000       0.08634180
    84  C          0.63898000       0.77558000       0.91365820
    85  C          0.46672000       0.30922000       0.16542000
    86  C          0.53328000       0.69078000       0.83458000
    87  C          0.13762000       0.18602000       0.02452180
    88  C          0.86238000       0.81398000       0.97547820
    89  C          0.28822000       0.03472000       0.93258000
    90  C          0.71178000       0.96528000       0.06742000
    91  H          0.21830000       0.33530000       0.15420000
    92  H          0.78170000       0.66470000       0.84580000
    93  H          0.30530000       0.95370000       0.87680000
    94  H          0.69470000       0.04630000       0.12320000
    95  H          0.47120000       0.08820000      -0.00720000
    96  H          0.52880000       0.91180000       0.00720000
    97  H          0.09430000       0.01930000       0.89280000
    98  H          0.90570000       0.98070000       0.10720000
    99  I          0.00879114       0.75071415       0.65856912
   100  I         -0.00879114       0.24928585       0.34143088
   101  O          0.73873170       0.43098170       0.27428150
   102  O          0.26126830       0.56901830       0.72571850
   103  O          0.75268190       0.49719190       0.12374150
   104  O          0.24731810       0.50280810       0.87625850
   105  C          0.88962000       0.63272000       0.41676190
   106  C          0.11038000       0.36728000       0.58323810
   107  C          0.86202000       0.61842000       0.30098190
   108  C          0.13798000       0.38158000       0.69901810
   109  C          0.77822000       0.50852000       0.22442000
   110  C          0.22178000       0.49148000       0.77558000
   111  C          0.91222000       0.70693000       0.25702000
   112  C          0.08778000       0.29307000       0.74298000
   113  C          0.96572000       0.73512000       0.48618190
   114  C          0.03428000       0.26488000       0.51381810
   115  C          0.01632000       0.82362000       0.44282000
   116  C          0.98368000       0.17638000       0.55718000
   117  C         -0.01058000       0.80873000       0.32662000
   118  C          0.01058000       0.19127000       0.67338000
   119  H          0.06330000       0.89120000       0.48720000
   120  H          0.93670000       0.10880000       0.51280000
   121  H          0.02730000       0.87030000       0.29520000
   122  H          0.97270000       0.12970000       0.70480000
   123  H          0.85920000       0.57020000       0.44320000
   124  H          0.14080000       0.42980000       0.55680000
   125  H          0.89230000       0.69530000       0.17730000
   126  H          0.10770000       0.30470000       0.82270000
   127  H          0.66940000       0.35540000       0.21240000
   128  H          0.33060000       0.64460000       0.78760000
