data_VARYES01
_symmetry_space_group_name_H-M    'P1'
_symmetry_Int_Tables_number       1
loop_
_symmetry_equiv_pos_site_id
_symmetry_equiv_pos_as_xyz
1 x,y,z
_cell_length_a                   6.95
_cell_length_b                   12.2
_cell_length_c                   8.7
_cell_angle_alpha                90.0
_cell_angle_beta                 90.0
_cell_angle_gamma                90.0
loop_
_atom_site_label
_atom_site_type_symbol
_atom_site_fract_x
_atom_site_fract_y
_atom_site_fract_z
     1  P          0.44000000       0.25000000       0.96000000
     2  P          0.06000000       0.75000000       0.46000000
     3  P          0.94000000       0.25000000       0.54000000
     4  P          0.56000000       0.75000000       0.04000000
     5  P          0.11000000       0.13000000       0.06000000
     6  P          0.39000000       0.87000000       0.56000000
     7  P          0.61000000       0.37000000       0.44000000
     8  P          0.89000000       0.63000000       0.94000000
     9  P          0.89000000       0.87000000       0.94000000
    10  P          0.61000000       0.13000000       0.44000000
    11  P          0.39000000       0.63000000       0.56000000
    12  P          0.11000000       0.37000000       0.06000000
    13  N          0.33000000       0.14000000       0.01000000
    14  N          0.17000000       0.86000000       0.51000000
    15  N          0.83000000       0.36000000       0.49000000
    16  N          0.67000000       0.64000000      -0.01000000
    17  N          0.67000000       0.86000000      -0.01000000
    18  N          0.83000000       0.14000000       0.49000000
    19  N          0.17000000       0.64000000       0.51000000
    20  N          0.33000000       0.36000000       0.01000000
    21  N         -0.00000000       0.25000000       0.10000000
    22  N          0.50000000       0.75000000       0.60000000
    23  N          0.50000000       0.25000000       0.40000000
    24  N         -0.00000000       0.75000000       0.90000000
    25  F          0.11000000       0.06000000       0.87000000
    26  F          0.39000000       0.94000000       0.37000000
    27  F          0.61000000       0.44000000       0.63000000
    28  F          0.89000000       0.56000000       0.13000000
    29  F          0.89000000       0.94000000       0.13000000
    30  F          0.61000000       0.06000000       0.63000000
    31  F          0.39000000       0.56000000       0.37000000
    32  F          0.11000000       0.44000000       0.87000000
    33  F         -0.00000000       0.07000000       0.21000000
    34  F          0.50000000       0.93000000       0.71000000
    35  F          0.50000000       0.43000000       0.29000000
    36  F         -0.00000000       0.57000000       0.79000000
    37  F         -0.00000000       0.93000000       0.79000000
    38  F          0.50000000       0.07000000       0.29000000
    39  F          0.50000000       0.57000000       0.71000000
    40  F         -0.00000000       0.43000000       0.21000000
    41  F          0.58000000       0.25000000       0.12000000
    42  F          0.92000000       0.75000000       0.62000000
    43  F          0.08000000       0.25000000       0.38000000
    44  F          0.42000000       0.75000000       0.88000000
    45  F          0.54000000       0.25000000       0.78000000
    46  F          0.96000000       0.75000000       0.28000000
    47  F          0.04000000       0.25000000       0.72000000
    48  F          0.46000000       0.75000000       0.22000000
