
#######################################################################
#
#                 Cambridge Crystallographic Data Centre
#                                CCDC 
#
#######################################################################
#
# If this CIF has been generated from an entry in the Cambridge 
# Structural Database, then it will include bibliographic, chemical, 
# crystal, experimental, refinement or atomic coordinate data resulting 
# from the CCDC's data processing and validation procedures.
#
#######################################################################

data_BARBOL
_chemical_name_common            'PDB Chemical Component code: F3B'
_chemical_formula_moiety         'C6 Cl3 F3'
_chemical_name_systematic        1,3,5-Trichloro-2,4,6-trifluorobenzene
_symmetry_cell_setting           hexagonal
_symmetry_space_group_name_H-M   'P 63/m'
_symmetry_Int_Tables_number      176
_space_group_name_Hall           '-P 6c'
loop_
_symmetry_equiv_pos_site_id
_symmetry_equiv_pos_as_xyz
1 x,y,z
2 -y,x-y,z
3 -x+y,-x,z
4 -x,-y,1/2+z
5 y,-x+y,1/2+z
6 x-y,x,1/2+z
7 -x,-y,-z
8 y,-x+y,-z
9 x-y,x,-z
10 x,y,1/2-z
11 -y,x-y,1/2-z
12 -x+y,-x,1/2-z
_cell_length_a                   8.541(3)
_cell_length_b                   8.541(3)
_cell_length_c                   6.282(2)
_cell_angle_alpha                90
_cell_angle_beta                 90
_cell_angle_gamma                120
_cell_volume                     396.868
_chemical_melting_point          57deg.C
_cell_formula_units_Z            2
loop_
_atom_site_label
_atom_site_type_symbol
_atom_site_fract_x
_atom_site_fract_y
_atom_site_fract_z
C1 C 0.84535 0.46502 0.25000
C2 C 0.71451 0.51573 0.25000
F1 F 1.01952 0.59226 0.25000
Cl1 Cl 0.77212 0.73789 0.25000
C2B C 0.80122 0.28549 0.25000
C1A C 0.53498 0.38033 0.25000
C1B C 0.61967 0.15465 0.25000
Cl1B Cl 0.96577 0.22788 0.25000
C2A C 0.48427 0.19878 0.25000
F1A F 0.40774 0.42726 0.25000
F1B F 0.57274 -0.01952 0.25000
Cl1A Cl 0.26211 0.03423 0.25000
loop_
_geom_bond_atom_site_label_1
_geom_bond_atom_site_label_2
_geom_bond_site_symmetry_1
_geom_bond_site_symmetry_2
C1 C2 1_555 1_555
C2 Cl1 1_555 1_555
F1 C1 1_555 1_555
C2B C1 1_555 1_555
C1A C2 1_555 1_555
C1B C2B 1_555 1_555
Cl1B C2B 1_555 1_555
C2A C1A 1_555 1_555
F1A C1A 1_555 1_555
F1B C1B 1_555 1_555
Cl1A C2A 1_555 1_555
C1B C2A 1_555 1_555

#END
