
#######################################################################
#
#                 Cambridge Crystallographic Data Centre
#                                CCDC 
#
#######################################################################
#
# If this CIF has been generated from an entry in the Cambridge 
# Structural Database, then it will include bibliographic, chemical, 
# crystal, experimental, refinement or atomic coordinate data resulting 
# from the CCDC's data processing and validation procedures.
#
#######################################################################

data_FILMOC01
_chemical_name_common            
'Teaching Subset: Fundamental Chemistry, Symmetry'
_chemical_formula_moiety         'C2 Cl9 P1'
_chemical_name_systematic        bis(Trichloromethyl)-trichlorophosphorane
_symmetry_cell_setting           rhombohedral
_symmetry_space_group_name_H-M   'R -3 m'
_symmetry_Int_Tables_number      166
_space_group_name_Hall           '-R 3 2"'
loop_
_symmetry_equiv_pos_site_id
_symmetry_equiv_pos_as_xyz
1 x,y,z
2 1/3+x,2/3+y,2/3+z
3 2/3+x,1/3+y,1/3+z
4 -y,x-y,z
5 -x+y,-x,z
6 1/3-y,2/3+x-y,2/3+z
7 1/3-x+y,2/3-x,2/3+z
8 2/3-y,1/3+x-y,1/3+z
9 2/3-x+y,1/3-x,1/3+z
10 y,x,-z
11 2/3+y,1/3+x,1/3-z
12 1/3+y,2/3+x,2/3-z
13 x-y,-y,-z
14 -x,-x+y,-z
15 2/3+x-y,1/3-y,1/3-z
16 2/3-x,1/3-x+y,1/3-z
17 1/3+x-y,2/3-y,2/3-z
18 1/3-x,2/3-x+y,2/3-z
19 -x,-y,-z
20 2/3-x,1/3-y,1/3-z
21 1/3-x,2/3-y,2/3-z
22 y,-x+y,-z
23 x-y,x,-z
24 2/3+y,1/3-x+y,1/3-z
25 2/3+x-y,1/3+x,1/3-z
26 1/3+y,2/3-x+y,2/3-z
27 1/3+x-y,2/3+x,2/3-z
28 -y,-x,z
29 1/3-y,2/3-x,2/3+z
30 2/3-y,1/3-x,1/3+z
31 -x+y,y,z
32 x,x-y,z
33 1/3-x+y,2/3+y,2/3+z
34 1/3+x,2/3+x-y,2/3+z
35 2/3-x+y,1/3+y,1/3+z
36 2/3+x,1/3+x-y,1/3+z
_cell_length_a                   10.457(1)
_cell_length_b                   10.457(1)
_cell_length_c                   17.612(1)
_cell_angle_alpha                90
_cell_angle_beta                 90
_cell_angle_gamma                120
_cell_volume                     1667.84
_cell_formula_units_Z            6
loop_
_atom_site_label
_atom_site_type_symbol
_atom_site_fract_x
_atom_site_fract_y
_atom_site_fract_z
P1 P 0.0000 0.0000 0.2569(1)
Cl1 Cl -0.1120 0.1120(1) 0.2568(2)
Cl2 Cl 0.0918 0.1836(2) 0.1080(1)
Cl3 Cl -0.1830 -0.0915(2) 0.4047(1)
C1 C 0.0000 0.0000 0.1441(6)
C2 C 0.0000 0.0000 0.3680(6)
Cl1C Cl -0.1120(1) -0.2240(1) 0.2568(2)
Cl1D Cl 0.2240(1) 0.1120 0.2568(2)
Cl2C Cl -0.1836(2) -0.0918(2) 0.1080(1)
Cl2D Cl 0.0918(2) -0.0918 0.1080(1)
Cl3C Cl 0.0915(2) -0.0915(2) 0.4047(1)
Cl3D Cl 0.0915(2) 0.1830 0.4047(1)
loop_
_geom_bond_atom_site_label_1
_geom_bond_atom_site_label_2
_geom_bond_site_symmetry_1
_geom_bond_site_symmetry_2
P1 Cl1 1_555 1_555
Cl2 C1 1_555 1_555
Cl3 C2 1_555 1_555
C1 P1 1_555 1_555
C2 P1 1_555 1_555
Cl1C P1 1_555 1_555
Cl1D P1 1_555 1_555
Cl2C C1 1_555 1_555
Cl2D C1 1_555 1_555
Cl3C C2 1_555 1_555
Cl3D C2 1_555 1_555

#END
